*******************************************************************************

         NASA-GLENN CHEMICAL EQUILIBRIUM PROGRAM CEA2, FEBRUARY 5, 2004
                   BY  BONNIE MCBRIDE AND SANFORD GORDON
      REFS: NASA RP-1311, PART I, 1994 AND NASA RP-1311, PART II, 1996

 *******************************************************************************




 ### CEA analysis performed on Tue 30-Aug-2022 01:19:16

 # Problem Type: "Rocket" (Infinite Area Combustor)

 prob case=_______________6994 ro equilibrium

 # Pressure (1 value):
 p,psia= 1000
 # Chamber/Exit Pressure Ratio (1 value):
 pi/p= 68.027

 # Oxidizer/Fuel Wt. ratio (1 value):
 o/f= 5.25

 # You selected the following fuels and oxidizers:
 reac
 fuel C2H5OH(L)         wt%=100.0000  t,k= 300.000
 oxid N2O               wt%=100.0000  t,k= 184.000

 # You selected these options for output:
 # short version of output
 output short
 # Proportions of any products will be expressed as Mass Fractions.
 output massf
 # Heat will be expressed as siunits
 output siunits

 # Input prepared by this script:/var/www/sites/cearun.grc.nasa.gov/cgi-bin/CEARU
 N/prepareInputFile.cgi

 ### IMPORTANT:  The following line is the end of your CEA input file!
 end





              THEORETICAL ROCKET PERFORMANCE ASSUMING EQUILIBRIUM

           COMPOSITION DURING EXPANSION FROM INFINITE AREA COMBUSTOR

 Pin =  1000.0 PSIA
 CASE = _______________

             REACTANT                    WT FRACTION      ENERGY      TEMP
                                          (SEE NOTE)     KJ/KG-MOL      K
 FUEL        C2H5OH(L)                    1.0000000   -277301.667    300.000
 OXIDANT     N2O                          1.0000000     77910.630    184.000

 O/F=    5.25000  %FUEL= 16.000000  R,EQ.RATIO= 1.077718  PHI,EQ.RATIO= 1.091861

                 CHAMBER   THROAT     EXIT
 Pinf/P            1.0000   1.7395   68.027
 P, BAR            68.947   39.636   1.0135
 T, K             3229.84  3038.68  1768.95
 RHO, KG/CU M    6.7710 0 4.1797 0 1.8904-1
 H, KJ/KG          523.86  -20.253 -2731.74
 U, KJ/KG         -494.42  -968.55 -3267.88
 G, KJ/KG        -31028.9 -29705.5 -20012.8
 S, KJ/(KG)(K)     9.7691   9.7691   9.7691

 M, (1/n)          26.373   26.643   27.433
 (dLV/dLP)t      -1.01536 -1.01231 -1.00002
 (dLV/dLT)p        1.3145   1.2695   1.0008
 Cp, KJ/(KG)(K)    3.7762   3.5698   1.5934
 GAMMAs            1.1480   1.1476   1.2353
 SON VEL,M/SEC     1081.2   1043.2    813.8
 MACH NUMBER        0.000    1.000    3.135

 PERFORMANCE PARAMETERS

 Ae/At                      1.0000   9.0389
 CSTAR, M/SEC               1581.3   1581.3
 CF                         0.6597   1.6137
 Ivac, M/SEC                1952.2   2761.8
 Isp, M/SEC                 1043.2   2551.7


 MASS FRACTIONS

 *CO              0.08238  0.07142  0.03354
 *CO2             0.17626  0.19347  0.25299
 COOH             0.00001  0.00000  0.00000
 *H               0.00021  0.00015  0.00000
 HNO              0.00001  0.00000  0.00000
 HO2              0.00005  0.00002  0.00000
 *H2              0.00170  0.00145  0.00112
 H2O              0.16221  0.16710  0.17766
 H2O2             0.00001  0.00000  0.00000
 *NO              0.01440  0.01025  0.00001
 NO2              0.00002  0.00001  0.00000
 *N2              0.52790  0.52985  0.53464
 N2O              0.00001  0.00000  0.00000
 *O               0.00203  0.00128  0.00000
 *OH              0.01589  0.01191  0.00003
 *O2              0.01692  0.01305  0.00000

  * THERMODYNAMIC PROPERTIES FITTED TO 20000.K

 NOTE. WEIGHT FRACTION OF FUEL IN TOTAL FUELS AND OF OXIDANT IN TOTAL OXIDANTS
